Version 4
SHEET 1 1624 680
WIRE 1008 -240 960 -240
WIRE 560 -176 0 -176
WIRE 624 -176 560 -176
WIRE 320 -128 -176 -128
WIRE 320 -80 320 -128
WIRE 560 -80 560 -176
WIRE 720 -80 560 -80
WIRE 960 -80 960 -240
WIRE 960 -80 832 -80
WIRE 1136 -80 960 -80
WIRE 1616 -80 1216 -80
WIRE 992 0 944 0
WIRE 320 48 320 0
WIRE 320 48 -48 48
WIRE 560 64 560 -80
WIRE 672 64 560 64
WIRE 944 64 944 0
WIRE 944 64 736 64
WIRE 1088 64 944 64
WIRE 1296 64 1200 64
WIRE 1408 64 1296 64
WIRE 1616 64 1616 -80
WIRE 1616 64 1488 64
WIRE 320 80 320 48
WIRE 384 80 320 80
WIRE -464 128 -528 128
WIRE -288 128 -384 128
WIRE -176 128 -176 -128
WIRE -176 128 -256 128
WIRE 48 128 -176 128
WIRE 320 128 320 80
WIRE 320 128 272 128
WIRE 560 144 560 64
WIRE -288 160 -288 128
WIRE -64 160 -288 160
WIRE 1296 176 1296 64
WIRE 1328 176 1296 176
WIRE -96 192 -368 192
WIRE -64 192 -64 160
WIRE 48 192 -64 192
WIRE 304 192 272 192
WIRE 944 192 944 64
WIRE 304 224 304 192
WIRE 384 224 384 160
WIRE 384 224 304 224
WIRE -368 240 -368 192
WIRE 0 256 0 -176
WIRE 48 256 0 256
WIRE 304 256 304 224
WIRE 304 256 272 256
WIRE -528 288 -528 128
WIRE -48 320 -48 48
WIRE 48 320 -48 320
WIRE 320 320 272 320
WIRE 384 320 384 224
WIRE -96 432 -96 192
WIRE 80 432 -96 432
WIRE 80 448 80 432
WIRE 320 448 320 320
WIRE 320 448 160 448
WIRE -528 528 -528 368
WIRE -368 528 -368 320
WIRE -368 528 -528 528
WIRE -256 528 -256 128
WIRE -256 528 -368 528
WIRE 160 528 -256 528
WIRE 384 528 384 384
WIRE 384 528 160 528
WIRE 560 528 560 224
WIRE 560 528 384 528
WIRE 944 528 944 272
WIRE 944 528 560 528
WIRE 1104 528 1104 512
WIRE 1104 528 944 528
WIRE 1616 528 1616 64
WIRE 1616 528 1104 528
WIRE 160 592 160 528
FLAG 624 -176 output_1
IOPIN 624 -176 Out
FLAG 160 592 0
FLAG 992 0 Output_3
IOPIN 992 0 Out
FLAG 1008 -240 Output_2
IOPIN 1008 -240 Out
FLAG 1328 176 Output_4
IOPIN 1328 176 Out
SYMBOL Misc\\NE555 160 224 R0
SYMATTR InstName U1
SYMBOL res 368 64 R0
SYMATTR InstName R1
SYMATTR Value 1k
SYMBOL cap 368 320 R0
SYMATTR InstName C1
SYMATTR Value 30µ
SYMBOL res 544 128 R0
SYMATTR InstName R2
SYMATTR Value 1k
SYMBOL voltage 320 16 R180
WINDOW 0 24 96 Left 2
WINDOW 3 24 16 Left 2
WINDOW 123 0 0 Left 0
WINDOW 39 0 0 Left 0
SYMATTR InstName V1
SYMATTR Value 5
SYMBOL Misc\\signal -368 224 R0
WINDOW 123 0 0 Left 0
WINDOW 39 0 0 Left 0
SYMATTR InstName V2
SYMATTR Value SINE(2.5 2.5 500)
SYMBOL Misc\\signal -528 272 R0
WINDOW 123 0 0 Left 0
WINDOW 39 0 0 Left 0
SYMATTR InstName V3
SYMATTR Value PULSE(0 5 0.0025 0.0005 0.0005 0.0025 .005)
SYMBOL res 960 288 R180
WINDOW 0 36 76 Left 2
WINDOW 3 36 40 Left 2
SYMATTR InstName R3
SYMATTR Value 3.9k
SYMBOL cap 736 48 R90
WINDOW 0 0 32 VBottom 2
WINDOW 3 32 32 VTop 2
SYMATTR InstName C2
SYMATTR Value 100µ
SYMBOL res 1232 -96 R90
WINDOW 0 0 56 VBottom 2
WINDOW 3 32 56 VTop 2
SYMATTR InstName R4
SYMATTR Value 30k
SYMBOL pot 816 -96 R90
WINDOW 0 63 -31 VRight 2
WINDOW 39 91 -31 VRight 2
SYMATTR InstName X1
SYMATTR SpiceLine R=20k Val=10
SYMBOL pot 1184 48 R90
WINDOW 0 63 -31 VRight 2
WINDOW 39 91 -31 VRight 2
SYMATTR InstName X2
SYMATTR SpiceLine R=30k Val=10
SYMBOL res 1504 48 R90
WINDOW 0 0 56 VBottom 2
WINDOW 3 32 56 VTop 2
SYMATTR InstName R5
SYMATTR Value 30k
SYMBOL res -368 112 R90
WINDOW 0 0 56 VBottom 2
WINDOW 3 32 56 VTop 2
SYMATTR InstName R6
SYMATTR Value 1k
SYMBOL res 176 432 R90
WINDOW 0 0 56 VBottom 2
WINDOW 3 32 56 VTop 2
SYMATTR InstName R7
SYMATTR Value 1k
TEXT -560 616 Left 2 !.tran 0.2
